<?xml version="1.0" encoding="UTF-8"?>

<!-- generated on 2025-07-29 15:08:36.418759 by randomTrips.py UNKNOWN
<configuration>
    <net-file value="/home/airam/Documents/Dev/TimeOptimizedFederatedLearning/scripts/../mobility/raw/scenarios/speed2/manhattan_net_2.xml"/>
    <output-trip-file value="/home/airam/Documents/Dev/TimeOptimizedFederatedLearning/scripts/../mobility/raw/scenarios/speed2/Krauss/100/flows_file_Krauss_100_10.xml"/>
    <trip-attributes value="departPos=&quot;random&quot; departSpeed=&quot;max&quot;"/>
    <seed value="10"/>
    <random value="True"/>
    <jtrrouter value="True"/>
    <end value="1.0"/>
    <flows value="100"/>
</configuration>
-->

<!-- generated on 2025-07-29 15:08:36 by Eclipse SUMO duarouter Version 1.24.0
<duarouterConfiguration xmlns:xsi="http://www.w3.org/2001/XMLSchema-instance" xsi:noNamespaceSchemaLocation="http://sumo.dlr.de/xsd/duarouterConfiguration.xsd">

    <input>
        <net-file value="/home/airam/Documents/Dev/TimeOptimizedFederatedLearning/scripts/../mobility/raw/scenarios/speed2/manhattan_net_2.xml"/>
        <route-files value="/home/airam/Documents/Dev/TimeOptimizedFederatedLearning/scripts/../mobility/raw/scenarios/speed2/Krauss/100/flows_file_Krauss_100_10.xml"/>
    </input>

    <output>
        <output-file value="routes.rou.xml"/>
        <alternatives-output value="NUL"/>
    </output>

    <time>
        <begin value="0.0"/>
        <end value="1.0"/>
    </time>

    <report>
        <no-warnings value="true"/>
        <ignore-errors value="true"/>
        <no-step-log value="true"/>
    </report>

</duarouterConfiguration>
-->

<routes xmlns:xsi="http://www.w3.org/2001/XMLSchema-instance" xsi:noNamespaceSchemaLocation="http://sumo.dlr.de/xsd/routes_file.xsd">
    <vehicle id="0.0" depart="0.00" departPos="random" departSpeed="max">
        <route edges="A0A1"/>
    </vehicle>
    <vehicle id="1.0" depart="0.00" departPos="random" departSpeed="max">
        <route edges="A1A0"/>
    </vehicle>
    <vehicle id="10.0" depart="0.00" departPos="random" departSpeed="max">
        <route edges="A0B0"/>
    </vehicle>
    <vehicle id="11.0" depart="0.00" departPos="random" departSpeed="max">
        <route edges="B1A1"/>
    </vehicle>
    <vehicle id="12.0" depart="0.00" departPos="random" departSpeed="max">
        <route edges="A1A0"/>
    </vehicle>
    <vehicle id="13.0" depart="0.00" departPos="random" departSpeed="max">
        <route edges="B0A0"/>
    </vehicle>
    <vehicle id="14.0" depart="0.00" departPos="random" departSpeed="max">
        <route edges="B1A1"/>
    </vehicle>
    <vehicle id="15.0" depart="0.00" departPos="random" departSpeed="max">
        <route edges="B1B0"/>
    </vehicle>
    <vehicle id="16.0" depart="0.00" departPos="random" departSpeed="max">
        <route edges="A0A1"/>
    </vehicle>
    <vehicle id="17.0" depart="0.00" departPos="random" departSpeed="max">
        <route edges="B1A1"/>
    </vehicle>
    <vehicle id="18.0" depart="0.00" departPos="random" departSpeed="max">
        <route edges="A0A1"/>
    </vehicle>
    <vehicle id="19.0" depart="0.00" departPos="random" departSpeed="max">
        <route edges="A1B1"/>
    </vehicle>
    <vehicle id="2.0" depart="0.00" departPos="random" departSpeed="max">
        <route edges="A1A0"/>
    </vehicle>
    <vehicle id="20.0" depart="0.00" departPos="random" departSpeed="max">
        <route edges="B1A1"/>
    </vehicle>
    <vehicle id="21.0" depart="0.00" departPos="random" departSpeed="max">
        <route edges="B1A1"/>
    </vehicle>
    <vehicle id="22.0" depart="0.00" departPos="random" departSpeed="max">
        <route edges="A0B0"/>
    </vehicle>
    <vehicle id="23.0" depart="0.00" departPos="random" departSpeed="max">
        <route edges="A0A1"/>
    </vehicle>
    <vehicle id="24.0" depart="0.00" departPos="random" departSpeed="max">
        <route edges="A0B0"/>
    </vehicle>
    <vehicle id="25.0" depart="0.00" departPos="random" departSpeed="max">
        <route edges="A0B0"/>
    </vehicle>
    <vehicle id="26.0" depart="0.00" departPos="random" departSpeed="max">
        <route edges="B1B0"/>
    </vehicle>
    <vehicle id="27.0" depart="0.00" departPos="random" departSpeed="max">
        <route edges="B0A0"/>
    </vehicle>
    <vehicle id="28.0" depart="0.00" departPos="random" departSpeed="max">
        <route edges="A0A1"/>
    </vehicle>
    <vehicle id="29.0" depart="0.00" departPos="random" departSpeed="max">
        <route edges="A0B0"/>
    </vehicle>
    <vehicle id="3.0" depart="0.00" departPos="random" departSpeed="max">
        <route edges="A0B0"/>
    </vehicle>
    <vehicle id="30.0" depart="0.00" departPos="random" departSpeed="max">
        <route edges="B0B1"/>
    </vehicle>
    <vehicle id="31.0" depart="0.00" departPos="random" departSpeed="max">
        <route edges="B0B1"/>
    </vehicle>
    <vehicle id="32.0" depart="0.00" departPos="random" departSpeed="max">
        <route edges="B1B0"/>
    </vehicle>
    <vehicle id="33.0" depart="0.00" departPos="random" departSpeed="max">
        <route edges="A0B0"/>
    </vehicle>
    <vehicle id="34.0" depart="0.00" departPos="random" departSpeed="max">
        <route edges="A0B0"/>
    </vehicle>
    <vehicle id="35.0" depart="0.00" departPos="random" departSpeed="max">
        <route edges="B0A0"/>
    </vehicle>
    <vehicle id="36.0" depart="0.00" departPos="random" departSpeed="max">
        <route edges="A0A1"/>
    </vehicle>
    <vehicle id="37.0" depart="0.00" departPos="random" departSpeed="max">
        <route edges="A0B0"/>
    </vehicle>
    <vehicle id="38.0" depart="0.00" departPos="random" departSpeed="max">
        <route edges="B0A0"/>
    </vehicle>
    <vehicle id="39.0" depart="0.00" departPos="random" departSpeed="max">
        <route edges="A0A1"/>
    </vehicle>
    <vehicle id="4.0" depart="0.00" departPos="random" departSpeed="max">
        <route edges="B0A0"/>
    </vehicle>
    <vehicle id="40.0" depart="0.00" departPos="random" departSpeed="max">
        <route edges="B0A0"/>
    </vehicle>
    <vehicle id="41.0" depart="0.00" departPos="random" departSpeed="max">
        <route edges="B1B0"/>
    </vehicle>
    <vehicle id="42.0" depart="0.00" departPos="random" departSpeed="max">
        <route edges="A0B0"/>
    </vehicle>
    <vehicle id="43.0" depart="0.00" departPos="random" departSpeed="max">
        <route edges="A0A1"/>
    </vehicle>
    <vehicle id="44.0" depart="0.00" departPos="random" departSpeed="max">
        <route edges="A0B0"/>
    </vehicle>
    <vehicle id="45.0" depart="0.00" departPos="random" departSpeed="max">
        <route edges="A0A1"/>
    </vehicle>
    <vehicle id="46.0" depart="0.00" departPos="random" departSpeed="max">
        <route edges="B0A0"/>
    </vehicle>
    <vehicle id="47.0" depart="0.00" departPos="random" departSpeed="max">
        <route edges="B0A0"/>
    </vehicle>
    <vehicle id="48.0" depart="0.00" departPos="random" departSpeed="max">
        <route edges="B1B0"/>
    </vehicle>
    <vehicle id="49.0" depart="0.00" departPos="random" departSpeed="max">
        <route edges="B0A0"/>
    </vehicle>
    <vehicle id="5.0" depart="0.00" departPos="random" departSpeed="max">
        <route edges="B1B0"/>
    </vehicle>
    <vehicle id="50.0" depart="0.00" departPos="random" departSpeed="max">
        <route edges="B1A1"/>
    </vehicle>
    <vehicle id="51.0" depart="0.00" departPos="random" departSpeed="max">
        <route edges="B0A0"/>
    </vehicle>
    <vehicle id="52.0" depart="0.00" departPos="random" departSpeed="max">
        <route edges="B0A0"/>
    </vehicle>
    <vehicle id="53.0" depart="0.00" departPos="random" departSpeed="max">
        <route edges="A0B0"/>
    </vehicle>
    <vehicle id="54.0" depart="0.00" departPos="random" departSpeed="max">
        <route edges="B1A1"/>
    </vehicle>
    <vehicle id="55.0" depart="0.00" departPos="random" departSpeed="max">
        <route edges="B0A0"/>
    </vehicle>
    <vehicle id="56.0" depart="0.00" departPos="random" departSpeed="max">
        <route edges="A1B1"/>
    </vehicle>
    <vehicle id="57.0" depart="0.00" departPos="random" departSpeed="max">
        <route edges="B1A1"/>
    </vehicle>
    <vehicle id="58.0" depart="0.00" departPos="random" departSpeed="max">
        <route edges="A1B1"/>
    </vehicle>
    <vehicle id="59.0" depart="0.00" departPos="random" departSpeed="max">
        <route edges="A1A0"/>
    </vehicle>
    <vehicle id="6.0" depart="0.00" departPos="random" departSpeed="max">
        <route edges="A1B1"/>
    </vehicle>
    <vehicle id="60.0" depart="0.00" departPos="random" departSpeed="max">
        <route edges="A0A1"/>
    </vehicle>
    <vehicle id="61.0" depart="0.00" departPos="random" departSpeed="max">
        <route edges="B1B0"/>
    </vehicle>
    <vehicle id="62.0" depart="0.00" departPos="random" departSpeed="max">
        <route edges="A0B0"/>
    </vehicle>
    <vehicle id="63.0" depart="0.00" departPos="random" departSpeed="max">
        <route edges="B1B0"/>
    </vehicle>
    <vehicle id="64.0" depart="0.00" departPos="random" departSpeed="max">
        <route edges="B0B1"/>
    </vehicle>
    <vehicle id="65.0" depart="0.00" departPos="random" departSpeed="max">
        <route edges="A1B1"/>
    </vehicle>
    <vehicle id="66.0" depart="0.00" departPos="random" departSpeed="max">
        <route edges="B0B1"/>
    </vehicle>
    <vehicle id="67.0" depart="0.00" departPos="random" departSpeed="max">
        <route edges="A1A0"/>
    </vehicle>
    <vehicle id="68.0" depart="0.00" departPos="random" departSpeed="max">
        <route edges="A1B1"/>
    </vehicle>
    <vehicle id="69.0" depart="0.00" departPos="random" departSpeed="max">
        <route edges="A0B0"/>
    </vehicle>
    <vehicle id="7.0" depart="0.00" departPos="random" departSpeed="max">
        <route edges="A1A0"/>
    </vehicle>
    <vehicle id="70.0" depart="0.00" departPos="random" departSpeed="max">
        <route edges="B0B1"/>
    </vehicle>
    <vehicle id="71.0" depart="0.00" departPos="random" departSpeed="max">
        <route edges="A1B1"/>
    </vehicle>
    <vehicle id="72.0" depart="0.00" departPos="random" departSpeed="max">
        <route edges="B0B1"/>
    </vehicle>
    <vehicle id="73.0" depart="0.00" departPos="random" departSpeed="max">
        <route edges="B0A0"/>
    </vehicle>
    <vehicle id="74.0" depart="0.00" departPos="random" departSpeed="max">
        <route edges="B1A1"/>
    </vehicle>
    <vehicle id="75.0" depart="0.00" departPos="random" departSpeed="max">
        <route edges="B1A1"/>
    </vehicle>
    <vehicle id="76.0" depart="0.00" departPos="random" departSpeed="max">
        <route edges="B1A1"/>
    </vehicle>
    <vehicle id="77.0" depart="0.00" departPos="random" departSpeed="max">
        <route edges="B1B0"/>
    </vehicle>
    <vehicle id="78.0" depart="0.00" departPos="random" departSpeed="max">
        <route edges="A0A1"/>
    </vehicle>
    <vehicle id="79.0" depart="0.00" departPos="random" departSpeed="max">
        <route edges="B0B1"/>
    </vehicle>
    <vehicle id="8.0" depart="0.00" departPos="random" departSpeed="max">
        <route edges="B0A0"/>
    </vehicle>
    <vehicle id="80.0" depart="0.00" departPos="random" departSpeed="max">
        <route edges="A0A1"/>
    </vehicle>
    <vehicle id="81.0" depart="0.00" departPos="random" departSpeed="max">
        <route edges="A0A1"/>
    </vehicle>
    <vehicle id="82.0" depart="0.00" departPos="random" departSpeed="max">
        <route edges="A0B0"/>
    </vehicle>
    <vehicle id="83.0" depart="0.00" departPos="random" departSpeed="max">
        <route edges="A1A0"/>
    </vehicle>
    <vehicle id="84.0" depart="0.00" departPos="random" departSpeed="max">
        <route edges="B1B0"/>
    </vehicle>
    <vehicle id="85.0" depart="0.00" departPos="random" departSpeed="max">
        <route edges="B1B0"/>
    </vehicle>
    <vehicle id="86.0" depart="0.00" departPos="random" departSpeed="max">
        <route edges="B0A0"/>
    </vehicle>
    <vehicle id="87.0" depart="0.00" departPos="random" departSpeed="max">
        <route edges="A1B1"/>
    </vehicle>
    <vehicle id="88.0" depart="0.00" departPos="random" departSpeed="max">
        <route edges="B1A1"/>
    </vehicle>
    <vehicle id="89.0" depart="0.00" departPos="random" departSpeed="max">
        <route edges="B1A1"/>
    </vehicle>
    <vehicle id="9.0" depart="0.00" departPos="random" departSpeed="max">
        <route edges="B0A0"/>
    </vehicle>
    <vehicle id="90.0" depart="0.00" departPos="random" departSpeed="max">
        <route edges="B1A1"/>
    </vehicle>
    <vehicle id="91.0" depart="0.00" departPos="random" departSpeed="max">
        <route edges="A1A0"/>
    </vehicle>
    <vehicle id="92.0" depart="0.00" departPos="random" departSpeed="max">
        <route edges="A1B1"/>
    </vehicle>
    <vehicle id="93.0" depart="0.00" departPos="random" departSpeed="max">
        <route edges="B0A0"/>
    </vehicle>
    <vehicle id="94.0" depart="0.00" departPos="random" departSpeed="max">
        <route edges="A1B1"/>
    </vehicle>
    <vehicle id="95.0" depart="0.00" departPos="random" departSpeed="max">
        <route edges="B1B0"/>
    </vehicle>
    <vehicle id="96.0" depart="0.00" departPos="random" departSpeed="max">
        <route edges="A1A0"/>
    </vehicle>
    <vehicle id="97.0" depart="0.00" departPos="random" departSpeed="max">
        <route edges="A1B1"/>
    </vehicle>
    <vehicle id="98.0" depart="0.00" departPos="random" departSpeed="max">
        <route edges="B0B1"/>
    </vehicle>
    <vehicle id="99.0" depart="0.00" departPos="random" departSpeed="max">
        <route edges="B0A0"/>
    </vehicle>
</routes>
